<additional>
    <laneAreaDetector id="42428287_42428283_35027229#1_0" lane="35027229#1_0" pos="0.00" endPos="68.09" freq="7" file="camera_42428287_42428283_output.xml"/>
    <laneAreaDetector id="42428287_42437363_167922076#1_0" lane="167922076#1_0" pos="0.00" endPos="35.93" freq="7" file="camera_42428287_42437363_output.xml"/>
    <laneAreaDetector id="42428287_42437363_167922076#1_1" lane="167922076#1_1" pos="0.00" endPos="35.93" freq="7" file="camera_42428287_42437363_output.xml"/>
    <laneAreaDetector id="42428287_42437363_reverse_-167922076#1_0" lane="-167922076#1_0" pos="0.00" endPos="35.93" freq="7" file="camera_42428287_42437363_reverse_output.xml"/>
    <laneAreaDetector id="42428287_42437363_reverse_-167922076#1_1" lane="-167922076#1_1" pos="0.00" endPos="35.93" freq="7" file="camera_42428287_42437363_reverse_output.xml"/>
    <laneAreaDetector id="42428287_42430333_167922072#1_0" lane="167922072#1_0" pos="0.00" endPos="202.81" freq="7" file="camera_42428287_42430333_output.xml"/>
    <laneAreaDetector id="42428287_42430333_167922072#1_1" lane="167922072#1_1" pos="0.00" endPos="202.81" freq="7" file="camera_42428287_42430333_output.xml"/>
    <laneAreaDetector id="42428287_42430333_reverse_-167922072#1_0" lane="-167922072#1_0" pos="0.00" endPos="202.81" freq="7" file="camera_42428287_42430333_reverse_output.xml"/>
    <laneAreaDetector id="42428287_42430333_reverse_-167922072#1_1" lane="-167922072#1_1" pos="0.00" endPos="202.81" freq="7" file="camera_42428287_42430333_reverse_output.xml"/>
    <laneAreaDetector id="42428297_42439984_682360554#1_0" lane="682360554#1_0" pos="0.00" endPos="60.48" freq="7" file="camera_42428297_42439984_output.xml"/>
    <laneAreaDetector id="42428297_42439984_682360554#1_1" lane="682360554#1_1" pos="0.00" endPos="60.48" freq="7" file="camera_42428297_42439984_output.xml"/>
    <laneAreaDetector id="42428297_42439984_682360554#1_2" lane="682360554#1_2" pos="0.00" endPos="60.48" freq="7" file="camera_42428297_42439984_output.xml"/>
    <laneAreaDetector id="42428297_42439984_682360554#1_3" lane="682360554#1_3" pos="0.00" endPos="60.48" freq="7" file="camera_42428297_42439984_output.xml"/>
    <laneAreaDetector id="42428297_42432700_46522008#0_0" lane="46522008#0_0" pos="0.00" endPos="250.60" freq="7" file="camera_42428297_42432700_output.xml"/>
    <laneAreaDetector id="42428303_42435677_452322756#1_0" lane="452322756#1_0" pos="0.00" endPos="205.50" freq="7" file="camera_42428303_42435677_output.xml"/>
    <laneAreaDetector id="42428305_42439996_167922074#1_0" lane="167922074#1_0" pos="0.00" endPos="37.04" freq="7" file="camera_42428305_42439996_output.xml"/>
    <laneAreaDetector id="42428305_42439996_167922074#1_1" lane="167922074#1_1" pos="0.00" endPos="37.04" freq="7" file="camera_42428305_42439996_output.xml"/>
    <laneAreaDetector id="42428305_42439996_167922074#1_2" lane="167922074#1_2" pos="0.00" endPos="37.04" freq="7" file="camera_42428305_42439996_output.xml"/>
    <laneAreaDetector id="42428305_42428303_626514137#1_0" lane="626514137#1_0" pos="0.00" endPos="64.03" freq="7" file="camera_42428305_42428303_output.xml"/>
    <laneAreaDetector id="42428307_42428305_972926362#1_0" lane="972926362#1_0" pos="0.00" endPos="69.15" freq="7" file="camera_42428307_42428305_output.xml"/>
    <laneAreaDetector id="42428307_42432589_1320234484#6_0" lane="1320234484#6_0" pos="0.00" endPos="176.04" freq="7" file="camera_42428307_42432589_output.xml"/>
    <laneAreaDetector id="42428308_42440001_420908137#0_0" lane="420908137#0_0" pos="0.00" endPos="62.07" freq="7" file="camera_42428308_42440001_output.xml"/>
    <laneAreaDetector id="42428308_42440001_420908137#0_1" lane="420908137#0_1" pos="0.00" endPos="62.07" freq="7" file="camera_42428308_42440001_output.xml"/>
    <laneAreaDetector id="42428308_42428307_1136460177#1_0" lane="1136460177#1_0" pos="0.00" endPos="64.23" freq="7" file="camera_42428308_42428307_output.xml"/>
    <laneAreaDetector id="42428310_42435687_226041030#2_0" lane="226041030#2_0" pos="0.00" endPos="169.32" freq="7" file="camera_42428310_42435687_output.xml"/>
    <laneAreaDetector id="42428310_42428308_1136460179#2_0" lane="1136460179#2_0" pos="0.00" endPos="61.96" freq="7" file="camera_42428310_42428308_output.xml"/>
    <laneAreaDetector id="42428310_42428308_1136460179#2_1" lane="1136460179#2_1" pos="0.00" endPos="61.96" freq="7" file="camera_42428310_42428308_output.xml"/>
    <laneAreaDetector id="42428312_42440009_717625448#2_0" lane="717625448#2_0" pos="0.00" endPos="70.04" freq="7" file="camera_42428312_42440009_output.xml"/>
    <laneAreaDetector id="42428312_42440009_717625448#2_1" lane="717625448#2_1" pos="0.00" endPos="70.04" freq="7" file="camera_42428312_42440009_output.xml"/>
    <laneAreaDetector id="42428312_42428310_812949648#1_0" lane="812949648#1_0" pos="0.00" endPos="63.67" freq="7" file="camera_42428312_42428310_output.xml"/>
    <laneAreaDetector id="42428312_42428310_812949648#1_1" lane="812949648#1_1" pos="0.00" endPos="63.67" freq="7" file="camera_42428312_42428310_output.xml"/>
    <laneAreaDetector id="42428313_42435705_812949647#1_0" lane="812949647#1_0" pos="0.00" endPos="158.28" freq="7" file="camera_42428313_42435705_output.xml"/>
    <laneAreaDetector id="42428313_42435705_812949647#1_1" lane="812949647#1_1" pos="0.00" endPos="158.28" freq="7" file="camera_42428313_42435705_output.xml"/>
    <laneAreaDetector id="42428313_42428312_1136460181#0_0" lane="1136460181#0_0" pos="0.00" endPos="59.40" freq="7" file="camera_42428313_42428312_output.xml"/>
    <laneAreaDetector id="42428313_42428312_1136460181#0_1" lane="1136460181#0_1" pos="0.00" endPos="59.40" freq="7" file="camera_42428313_42428312_output.xml"/>
    <laneAreaDetector id="42428313_42428312_1136460181#0_2" lane="1136460181#0_2" pos="0.00" endPos="59.40" freq="7" file="camera_42428313_42428312_output.xml"/>
    <laneAreaDetector id="42428315_42440015_324118554#1_0" lane="324118554#1_0" pos="0.00" endPos="83.94" freq="7" file="camera_42428315_42440015_output.xml"/>
    <laneAreaDetector id="42428315_42440015_324118554#1_1" lane="324118554#1_1" pos="0.00" endPos="83.94" freq="7" file="camera_42428315_42440015_output.xml"/>
    <laneAreaDetector id="42428315_42428313_1267505842#1_0" lane="1267505842#1_0" pos="0.00" endPos="64.29" freq="7" file="camera_42428315_42428313_output.xml"/>
    <laneAreaDetector id="42428315_42428313_1267505842#1_1" lane="1267505842#1_1" pos="0.00" endPos="64.29" freq="7" file="camera_42428315_42428313_output.xml"/>
    <laneAreaDetector id="42428321_42428315_1267505843#0_0" lane="1267505843#0_0" pos="0.00" endPos="61.20" freq="7" file="camera_42428321_42428315_output.xml"/>
    <laneAreaDetector id="42428321_42428315_1267505843#0_1" lane="1267505843#0_1" pos="0.00" endPos="61.20" freq="7" file="camera_42428321_42428315_output.xml"/>
    <laneAreaDetector id="42428321_42428315_1267505843#0_2" lane="1267505843#0_2" pos="0.00" endPos="61.20" freq="7" file="camera_42428321_42428315_output.xml"/>
    <laneAreaDetector id="42428321_42435710_499172074#10_0" lane="499172074#10_0" pos="0.00" endPos="129.45" freq="7" file="camera_42428321_42435710_output.xml"/>
    <laneAreaDetector id="42428328_42428321_196116976#4_0" lane="196116976#4_0" pos="0.00" endPos="66.35" freq="7" file="camera_42428328_42428321_output.xml"/>
    <laneAreaDetector id="42428328_42428321_196116976#4_1" lane="196116976#4_1" pos="0.00" endPos="66.35" freq="7" file="camera_42428328_42428321_output.xml"/>
    <laneAreaDetector id="42430329_42430333_448686048#0_0" lane="448686048#0_0" pos="0.00" endPos="40.54" freq="7" file="camera_42430329_42430333_output.xml"/>
    <laneAreaDetector id="42430329_42430333_448686048#0_1" lane="448686048#0_1" pos="0.00" endPos="40.54" freq="7" file="camera_42430329_42430333_output.xml"/>
    <laneAreaDetector id="42430329_42430333_448686048#0_2" lane="448686048#0_2" pos="0.00" endPos="40.54" freq="7" file="camera_42430329_42430333_output.xml"/>
    <laneAreaDetector id="42430329_42430333_448686048#0_3" lane="448686048#0_3" pos="0.00" endPos="40.54" freq="7" file="camera_42430329_42430333_output.xml"/>
    <laneAreaDetector id="42430329_42430333_448686048#0_4" lane="448686048#0_4" pos="0.00" endPos="40.54" freq="7" file="camera_42430329_42430333_output.xml"/>
    <laneAreaDetector id="42430333_42430338_127693103#1_0" lane="127693103#1_0" pos="0.00" endPos="64.54" freq="7" file="camera_42430333_42430338_output.xml"/>
    <laneAreaDetector id="42430333_42430338_127693103#1_1" lane="127693103#1_1" pos="0.00" endPos="64.54" freq="7" file="camera_42430333_42430338_output.xml"/>
    <laneAreaDetector id="42430333_42430338_127693103#1_2" lane="127693103#1_2" pos="0.00" endPos="64.54" freq="7" file="camera_42430333_42430338_output.xml"/>
    <laneAreaDetector id="42430333_42430338_127693103#1_3" lane="127693103#1_3" pos="0.00" endPos="64.54" freq="7" file="camera_42430333_42430338_output.xml"/>
    <laneAreaDetector id="42430333_42428287_167922072#1_0" lane="167922072#1_0" pos="0.00" endPos="202.81" freq="7" file="camera_42430333_42428287_output.xml"/>
    <laneAreaDetector id="42430333_42428287_167922072#1_1" lane="167922072#1_1" pos="0.00" endPos="202.81" freq="7" file="camera_42430333_42428287_output.xml"/>
    <laneAreaDetector id="42430333_42428287_reverse_-167922072#1_0" lane="-167922072#1_0" pos="0.00" endPos="202.81" freq="7" file="camera_42430333_42428287_reverse_output.xml"/>
    <laneAreaDetector id="42430333_42428287_reverse_-167922072#1_1" lane="-167922072#1_1" pos="0.00" endPos="202.81" freq="7" file="camera_42430333_42428287_reverse_output.xml"/>
    <laneAreaDetector id="42430333_42437358_511699183#2_0" lane="511699183#2_0" pos="0.00" endPos="286.72" freq="7" file="camera_42430333_42437358_output.xml"/>
    <laneAreaDetector id="42430333_42437358_511699183#2_1" lane="511699183#2_1" pos="0.00" endPos="286.72" freq="7" file="camera_42430333_42437358_output.xml"/>
    <laneAreaDetector id="42430333_42437358_reverse_-511699183#2_0" lane="-511699183#2_0" pos="0.00" endPos="286.72" freq="7" file="camera_42430333_42437358_reverse_output.xml"/>
    <laneAreaDetector id="42430333_42437358_reverse_-511699183#2_1" lane="-511699183#2_1" pos="0.00" endPos="286.72" freq="7" file="camera_42430333_42437358_reverse_output.xml"/>
    <laneAreaDetector id="42430338_42430342_127693103#4_0" lane="127693103#4_0" pos="0.00" endPos="64.66" freq="7" file="camera_42430338_42430342_output.xml"/>
    <laneAreaDetector id="42430338_42430342_127693103#4_1" lane="127693103#4_1" pos="0.00" endPos="64.66" freq="7" file="camera_42430338_42430342_output.xml"/>
    <laneAreaDetector id="42430338_42430342_127693103#4_2" lane="127693103#4_2" pos="0.00" endPos="64.66" freq="7" file="camera_42430338_42430342_output.xml"/>
    <laneAreaDetector id="42430338_42430342_127693103#4_3" lane="127693103#4_3" pos="0.00" endPos="64.66" freq="7" file="camera_42430338_42430342_output.xml"/>
    <laneAreaDetector id="42430338_42439981_226041025#1_0" lane="226041025#1_0" pos="0.00" endPos="250.10" freq="7" file="camera_42430338_42439981_output.xml"/>
    <laneAreaDetector id="42430338_42439981_226041025#1_1" lane="226041025#1_1" pos="0.00" endPos="250.10" freq="7" file="camera_42430338_42439981_output.xml"/>
    <laneAreaDetector id="42430338_42439981_226041025#1_2" lane="226041025#1_2" pos="0.00" endPos="250.10" freq="7" file="camera_42430338_42439981_output.xml"/>
    <laneAreaDetector id="42430342_42443556_464515890#1_0" lane="464515890#1_0" pos="0.00" endPos="282.55" freq="7" file="camera_42430342_42443556_output.xml"/>
    <laneAreaDetector id="42430342_42430344_464516471#1_0" lane="464516471#1_0" pos="0.00" endPos="63.34" freq="7" file="camera_42430342_42430344_output.xml"/>
    <laneAreaDetector id="42430342_42430344_464516471#1_1" lane="464516471#1_1" pos="0.00" endPos="63.34" freq="7" file="camera_42430342_42430344_output.xml"/>
    <laneAreaDetector id="42430342_42430344_464516471#1_2" lane="464516471#1_2" pos="0.00" endPos="63.34" freq="7" file="camera_42430342_42430344_output.xml"/>
    <laneAreaDetector id="42430342_42430344_464516471#1_3" lane="464516471#1_3" pos="0.00" endPos="63.34" freq="7" file="camera_42430342_42430344_output.xml"/>
    <laneAreaDetector id="42430344_42430347_464516471#4_0" lane="464516471#4_0" pos="0.00" endPos="62.62" freq="7" file="camera_42430344_42430347_output.xml"/>
    <laneAreaDetector id="42430344_42430347_464516471#4_1" lane="464516471#4_1" pos="0.00" endPos="62.62" freq="7" file="camera_42430344_42430347_output.xml"/>
    <laneAreaDetector id="42430344_42430347_464516471#4_2" lane="464516471#4_2" pos="0.00" endPos="62.62" freq="7" file="camera_42430344_42430347_output.xml"/>
    <laneAreaDetector id="42430344_42430347_464516471#4_3" lane="464516471#4_3" pos="0.00" endPos="62.62" freq="7" file="camera_42430344_42430347_output.xml"/>
    <laneAreaDetector id="42430344_42428297_1117867038#2_0" lane="1117867038#2_0" pos="0.00" endPos="248.21" freq="7" file="camera_42430344_42428297_output.xml"/>
    <laneAreaDetector id="42430347_42434072_46522000#1_0" lane="46522000#1_0" pos="0.00" endPos="286.24" freq="7" file="camera_42430347_42434072_output.xml"/>
    <laneAreaDetector id="42430347_42430350_464516471#9_0" lane="464516471#9_0" pos="0.00" endPos="63.12" freq="7" file="camera_42430347_42430350_output.xml"/>
    <laneAreaDetector id="42430347_42430350_464516471#9_1" lane="464516471#9_1" pos="0.00" endPos="63.12" freq="7" file="camera_42430347_42430350_output.xml"/>
    <laneAreaDetector id="42430347_42430350_464516471#9_2" lane="464516471#9_2" pos="0.00" endPos="63.12" freq="7" file="camera_42430347_42430350_output.xml"/>
    <laneAreaDetector id="42430347_42430350_464516471#9_3" lane="464516471#9_3" pos="0.00" endPos="63.12" freq="7" file="camera_42430347_42430350_output.xml"/>
    <laneAreaDetector id="42430350_42439994_5672036#4_0" lane="5672036#4_0" pos="0.00" endPos="249.08" freq="7" file="camera_42430350_42439994_output.xml"/>
    <laneAreaDetector id="42430350_42430352_464516471#13_0" lane="464516471#13_0" pos="0.00" endPos="63.95" freq="7" file="camera_42430350_42430352_output.xml"/>
    <laneAreaDetector id="42430350_42430352_464516471#13_1" lane="464516471#13_1" pos="0.00" endPos="63.95" freq="7" file="camera_42430350_42430352_output.xml"/>
    <laneAreaDetector id="42430350_42430352_464516471#13_2" lane="464516471#13_2" pos="0.00" endPos="63.95" freq="7" file="camera_42430350_42430352_output.xml"/>
    <laneAreaDetector id="42430350_42430352_464516471#13_3" lane="464516471#13_3" pos="0.00" endPos="63.95" freq="7" file="camera_42430350_42430352_output.xml"/>
    <laneAreaDetector id="42430352_42443528_226041029#1_0" lane="226041029#1_0" pos="0.00" endPos="286.30" freq="7" file="camera_42430352_42443528_output.xml"/>
    <laneAreaDetector id="42430352_42430356_464516471#16_0" lane="464516471#16_0" pos="0.00" endPos="64.58" freq="7" file="camera_42430352_42430356_output.xml"/>
    <laneAreaDetector id="42430352_42430356_464516471#16_1" lane="464516471#16_1" pos="0.00" endPos="64.58" freq="7" file="camera_42430352_42430356_output.xml"/>
    <laneAreaDetector id="42430352_42430356_464516471#16_2" lane="464516471#16_2" pos="0.00" endPos="64.58" freq="7" file="camera_42430352_42430356_output.xml"/>
    <laneAreaDetector id="42430352_42430356_464516471#16_3" lane="464516471#16_3" pos="0.00" endPos="64.58" freq="7" file="camera_42430352_42430356_output.xml"/>
    <laneAreaDetector id="42430356_42430358_464516471#18_0" lane="464516471#18_0" pos="0.00" endPos="63.26" freq="7" file="camera_42430356_42430358_output.xml"/>
    <laneAreaDetector id="42430356_42430358_464516471#18_1" lane="464516471#18_1" pos="0.00" endPos="63.26" freq="7" file="camera_42430356_42430358_output.xml"/>
    <laneAreaDetector id="42430356_42430358_464516471#18_2" lane="464516471#18_2" pos="0.00" endPos="63.26" freq="7" file="camera_42430356_42430358_output.xml"/>
    <laneAreaDetector id="42430356_42430358_464516471#18_3" lane="464516471#18_3" pos="0.00" endPos="63.26" freq="7" file="camera_42430356_42430358_output.xml"/>
    <laneAreaDetector id="42430356_42432585_542258337#4_0" lane="542258337#4_0" pos="0.00" endPos="244.38" freq="7" file="camera_42430356_42432585_output.xml"/>
    <laneAreaDetector id="42430356_42432585_542258337#4_1" lane="542258337#4_1" pos="0.00" endPos="244.38" freq="7" file="camera_42430356_42432585_output.xml"/>
    <laneAreaDetector id="42430358_42440153_5670867#1_0" lane="5670867#1_0" pos="0.00" endPos="287.47" freq="7" file="camera_42430358_42440153_output.xml"/>
    <laneAreaDetector id="42430358_42440153_5670867#1_1" lane="5670867#1_1" pos="0.00" endPos="287.47" freq="7" file="camera_42430358_42440153_output.xml"/>
    <laneAreaDetector id="42430358_42430361_1211049193#0_0" lane="1211049193#0_0" pos="0.00" endPos="43.72" freq="7" file="camera_42430358_42430361_output.xml"/>
    <laneAreaDetector id="42430358_42430361_1211049193#0_1" lane="1211049193#0_1" pos="0.00" endPos="43.72" freq="7" file="camera_42430358_42430361_output.xml"/>
    <laneAreaDetector id="42430358_42430361_1211049193#0_2" lane="1211049193#0_2" pos="0.00" endPos="43.72" freq="7" file="camera_42430358_42430361_output.xml"/>
    <laneAreaDetector id="42430358_42430361_1211049193#0_3" lane="1211049193#0_3" pos="0.00" endPos="43.72" freq="7" file="camera_42430358_42430361_output.xml"/>
    <laneAreaDetector id="42430361_42430363_569345537#1_0" lane="569345537#1_0" pos="0.00" endPos="61.90" freq="7" file="camera_42430361_42430363_output.xml"/>
    <laneAreaDetector id="42430361_42430363_569345537#1_1" lane="569345537#1_1" pos="0.00" endPos="61.90" freq="7" file="camera_42430361_42430363_output.xml"/>
    <laneAreaDetector id="42430361_42430363_569345537#1_2" lane="569345537#1_2" pos="0.00" endPos="61.90" freq="7" file="camera_42430361_42430363_output.xml"/>
    <laneAreaDetector id="42430361_42430363_569345537#1_3" lane="569345537#1_3" pos="0.00" endPos="61.90" freq="7" file="camera_42430361_42430363_output.xml"/>
    <laneAreaDetector id="42430361_42440004_569345538#1_0" lane="569345538#1_0" pos="0.00" endPos="244.33" freq="7" file="camera_42430361_42440004_output.xml"/>
    <laneAreaDetector id="42430363_42430367_569345537#5_0" lane="569345537#5_0" pos="0.00" endPos="64.73" freq="7" file="camera_42430363_42430367_output.xml"/>
    <laneAreaDetector id="42430363_42430367_569345537#5_1" lane="569345537#5_1" pos="0.00" endPos="64.73" freq="7" file="camera_42430363_42430367_output.xml"/>
    <laneAreaDetector id="42430363_42430367_569345537#5_2" lane="569345537#5_2" pos="0.00" endPos="64.73" freq="7" file="camera_42430363_42430367_output.xml"/>
    <laneAreaDetector id="42430363_42430367_569345537#5_3" lane="569345537#5_3" pos="0.00" endPos="64.73" freq="7" file="camera_42430363_42430367_output.xml"/>
    <laneAreaDetector id="42430363_42446353_717625447#7_0" lane="717625447#7_0" pos="0.00" endPos="282.04" freq="7" file="camera_42430363_42446353_output.xml"/>
    <laneAreaDetector id="42430367_42440012_420905130#1_0" lane="420905130#1_0" pos="0.00" endPos="248.38" freq="7" file="camera_42430367_42440012_output.xml"/>
    <laneAreaDetector id="42430367_42440012_420905130#1_1" lane="420905130#1_1" pos="0.00" endPos="248.38" freq="7" file="camera_42430367_42440012_output.xml"/>
    <laneAreaDetector id="42430367_42430371_569345537#8_0" lane="569345537#8_0" pos="0.00" endPos="63.17" freq="7" file="camera_42430367_42430371_output.xml"/>
    <laneAreaDetector id="42430367_42430371_569345537#8_1" lane="569345537#8_1" pos="0.00" endPos="63.17" freq="7" file="camera_42430367_42430371_output.xml"/>
    <laneAreaDetector id="42430367_42430371_569345537#8_2" lane="569345537#8_2" pos="0.00" endPos="63.17" freq="7" file="camera_42430367_42430371_output.xml"/>
    <laneAreaDetector id="42430367_42430371_569345537#8_3" lane="569345537#8_3" pos="0.00" endPos="63.17" freq="7" file="camera_42430367_42430371_output.xml"/>
    <laneAreaDetector id="42430371_42450426_46521993#2_0" lane="46521993#2_0" pos="0.00" endPos="288.68" freq="7" file="camera_42430371_42450426_output.xml"/>
    <laneAreaDetector id="42430371_42450426_46521993#2_1" lane="46521993#2_1" pos="0.00" endPos="288.68" freq="7" file="camera_42430371_42450426_output.xml"/>
    <laneAreaDetector id="42430371_42430375_569345537#11_0" lane="569345537#11_0" pos="0.00" endPos="64.50" freq="7" file="camera_42430371_42430375_output.xml"/>
    <laneAreaDetector id="42430371_42430375_569345537#11_1" lane="569345537#11_1" pos="0.00" endPos="64.50" freq="7" file="camera_42430371_42430375_output.xml"/>
    <laneAreaDetector id="42430371_42430375_569345537#11_2" lane="569345537#11_2" pos="0.00" endPos="64.50" freq="7" file="camera_42430371_42430375_output.xml"/>
    <laneAreaDetector id="42430371_42430375_569345537#11_3" lane="569345537#11_3" pos="0.00" endPos="64.50" freq="7" file="camera_42430371_42430375_output.xml"/>
    <laneAreaDetector id="42430375_42440020_499172074#1_0" lane="499172074#1_0" pos="0.00" endPos="248.39" freq="7" file="camera_42430375_42440020_output.xml"/>
    <laneAreaDetector id="42430375_42430378_541350711#1_0" lane="541350711#1_0" pos="0.00" endPos="64.42" freq="7" file="camera_42430375_42430378_output.xml"/>
    <laneAreaDetector id="42430375_42430378_541350711#1_1" lane="541350711#1_1" pos="0.00" endPos="64.42" freq="7" file="camera_42430375_42430378_output.xml"/>
    <laneAreaDetector id="42430375_42430378_541350711#1_2" lane="541350711#1_2" pos="0.00" endPos="64.42" freq="7" file="camera_42430375_42430378_output.xml"/>
    <laneAreaDetector id="42430375_42430378_541350711#1_3" lane="541350711#1_3" pos="0.00" endPos="64.42" freq="7" file="camera_42430375_42430378_output.xml"/>
    <laneAreaDetector id="42431544_42440951_195743336#4_0" lane="195743336#4_0" pos="0.00" endPos="64.16" freq="7" file="camera_42431544_42440951_output.xml"/>
    <laneAreaDetector id="42431544_42440951_195743336#4_1" lane="195743336#4_1" pos="0.00" endPos="64.16" freq="7" file="camera_42431544_42440951_output.xml"/>
    <laneAreaDetector id="42431544_42440951_195743336#4_2" lane="195743336#4_2" pos="0.00" endPos="64.16" freq="7" file="camera_42431544_42440951_output.xml"/>
    <laneAreaDetector id="42431544_42440951_195743336#4_3" lane="195743336#4_3" pos="0.00" endPos="64.16" freq="7" file="camera_42431544_42440951_output.xml"/>
    <laneAreaDetector id="42431544_42440951_195743336#4_4" lane="195743336#4_4" pos="0.00" endPos="64.16" freq="7" file="camera_42431544_42440951_output.xml"/>
    <laneAreaDetector id="42431549_42440020_496989355#4_0" lane="496989355#4_0" pos="0.00" endPos="65.63" freq="7" file="camera_42431549_42440020_output.xml"/>
    <laneAreaDetector id="42431549_42440020_496989355#4_1" lane="496989355#4_1" pos="0.00" endPos="65.63" freq="7" file="camera_42431549_42440020_output.xml"/>
    <laneAreaDetector id="42431549_42440020_496989355#4_2" lane="496989355#4_2" pos="0.00" endPos="65.63" freq="7" file="camera_42431549_42440020_output.xml"/>
    <laneAreaDetector id="42431560_42440960_E5_0" lane="E5_0" pos="0.00" endPos="62.29" freq="7" file="camera_42431560_42440960_output.xml"/>
    <laneAreaDetector id="42431560_42440960_E5_1" lane="E5_1" pos="0.00" endPos="62.29" freq="7" file="camera_42431560_42440960_output.xml"/>
    <laneAreaDetector id="42431560_42440960_E5_2" lane="E5_2" pos="0.00" endPos="62.29" freq="7" file="camera_42431560_42440960_output.xml"/>
    <laneAreaDetector id="42432580_42430356_5670114#5_0" lane="5670114#5_0" pos="0.00" endPos="286.81" freq="7" file="camera_42432580_42430356_output.xml"/>
    <laneAreaDetector id="42432580_42443528_384178816#1_0" lane="384178816#1_0" pos="0.00" endPos="63.67" freq="7" file="camera_42432580_42443528_output.xml"/>
    <laneAreaDetector id="42432580_42443528_384178816#1_1" lane="384178816#1_1" pos="0.00" endPos="63.67" freq="7" file="camera_42432580_42443528_output.xml"/>
    <laneAreaDetector id="42432580_42443528_384178816#1_2" lane="384178816#1_2" pos="0.00" endPos="63.67" freq="7" file="camera_42432580_42443528_output.xml"/>
    <laneAreaDetector id="42432580_42443528_384178816#1_3" lane="384178816#1_3" pos="0.00" endPos="63.67" freq="7" file="camera_42432580_42443528_output.xml"/>
    <laneAreaDetector id="42432585_42439996_569345540#4_0" lane="569345540#4_0" pos="0.00" endPos="64.26" freq="7" file="camera_42432585_42439996_output.xml"/>
    <laneAreaDetector id="42432585_42439996_569345540#4_1" lane="569345540#4_1" pos="0.00" endPos="64.26" freq="7" file="camera_42432585_42439996_output.xml"/>
    <laneAreaDetector id="42432585_42439996_569345540#4_2" lane="569345540#4_2" pos="0.00" endPos="64.26" freq="7" file="camera_42432585_42439996_output.xml"/>
    <laneAreaDetector id="42432585_42428307_1320234484#1_0" lane="1320234484#1_0" pos="0.00" endPos="59.08" freq="7" file="camera_42432585_42428307_output.xml"/>
    <laneAreaDetector id="42432589_42435684_420907906#1_0" lane="420907906#1_0" pos="0.00" endPos="63.27" freq="7" file="camera_42432589_42435684_output.xml"/>
    <laneAreaDetector id="42432589_42435684_420907906#1_1" lane="420907906#1_1" pos="0.00" endPos="63.27" freq="7" file="camera_42432589_42435684_output.xml"/>
    <laneAreaDetector id="42432589_42435684_420907906#1_2" lane="420907906#1_2" pos="0.00" endPos="63.27" freq="7" file="camera_42432589_42435684_output.xml"/>
    <laneAreaDetector id="42432589_42432594_1320234484#11_0" lane="1320234484#11_0" pos="0.00" endPos="244.37" freq="7" file="camera_42432589_42432594_output.xml"/>
    <laneAreaDetector id="42432594_42432598_46443656#1_0" lane="46443656#1_0" pos="0.00" endPos="248.45" freq="7" file="camera_42432594_42432598_output.xml"/>
    <laneAreaDetector id="42432594_42443532_1025734020#1_0" lane="1025734020#1_0" pos="0.00" endPos="64.95" freq="7" file="camera_42432594_42443532_output.xml"/>
    <laneAreaDetector id="42432594_42443532_1025734020#1_1" lane="1025734020#1_1" pos="0.00" endPos="64.95" freq="7" file="camera_42432594_42443532_output.xml"/>
    <laneAreaDetector id="42432594_42443532_1025734020#1_2" lane="1025734020#1_2" pos="0.00" endPos="64.95" freq="7" file="camera_42432594_42443532_output.xml"/>
    <laneAreaDetector id="42432594_42443532_1025734020#1_3" lane="1025734020#1_3" pos="0.00" endPos="64.95" freq="7" file="camera_42432594_42443532_output.xml"/>
    <laneAreaDetector id="42432693_42443556_438397345#1_0" lane="438397345#1_0" pos="0.00" endPos="63.47" freq="7" file="camera_42432693_42443556_output.xml"/>
    <laneAreaDetector id="42432693_42443556_438397345#1_1" lane="438397345#1_1" pos="0.00" endPos="63.47" freq="7" file="camera_42432693_42443556_output.xml"/>
    <laneAreaDetector id="42432693_42443556_438397345#1_2" lane="438397345#1_2" pos="0.00" endPos="63.47" freq="7" file="camera_42432693_42443556_output.xml"/>
    <laneAreaDetector id="42432693_42443556_438397345#1_3" lane="438397345#1_3" pos="0.00" endPos="63.47" freq="7" file="camera_42432693_42443556_output.xml"/>
    <laneAreaDetector id="42432693_42430344_5670124_0" lane="5670124_0" pos="0.00" endPos="281.48" freq="7" file="camera_42432693_42430344_output.xml"/>
    <laneAreaDetector id="42432693_42430344_5670124_1" lane="5670124_1" pos="0.00" endPos="281.48" freq="7" file="camera_42432693_42430344_output.xml"/>
    <laneAreaDetector id="42432700_42435675_194926851#1_0" lane="194926851#1_0" pos="0.00" endPos="64.21" freq="7" file="camera_42432700_42435675_output.xml"/>
    <laneAreaDetector id="42432700_42435675_194926851#1_1" lane="194926851#1_1" pos="0.00" endPos="64.21" freq="7" file="camera_42432700_42435675_output.xml"/>
    <laneAreaDetector id="42432700_42435675_194926851#1_2" lane="194926851#1_2" pos="0.00" endPos="64.21" freq="7" file="camera_42432700_42435675_output.xml"/>
    <laneAreaDetector id="42432700_42432703_1198594028#1_0" lane="1198594028#1_0" pos="0.00" endPos="243.10" freq="7" file="camera_42432700_42432703_output.xml"/>
    <laneAreaDetector id="42432703_42432706_968513230#1_0" lane="968513230#1_0" pos="0.00" endPos="250.18" freq="7" file="camera_42432703_42432706_output.xml"/>
    <laneAreaDetector id="42432703_42443561_968513228#0_0" lane="968513228#0_0" pos="0.00" endPos="65.09" freq="7" file="camera_42432703_42443561_output.xml"/>
    <laneAreaDetector id="42432703_42443561_968513228#0_1" lane="968513228#0_1" pos="0.00" endPos="65.09" freq="7" file="camera_42432703_42443561_output.xml"/>
    <laneAreaDetector id="42432703_42443561_968513228#0_2" lane="968513228#0_2" pos="0.00" endPos="65.09" freq="7" file="camera_42432703_42443561_output.xml"/>
    <laneAreaDetector id="42432703_42443561_968513228#0_3" lane="968513228#0_3" pos="0.00" endPos="65.09" freq="7" file="camera_42432703_42443561_output.xml"/>
    <laneAreaDetector id="42434072_42434074_5670225#1_0" lane="5670225#1_0" pos="0.00" endPos="132.99" freq="7" file="camera_42434072_42434074_output.xml"/>
    <laneAreaDetector id="42434072_42432693_458180183#1_0" lane="458180183#1_0" pos="0.00" endPos="64.37" freq="7" file="camera_42434072_42432693_output.xml"/>
    <laneAreaDetector id="42434072_42432693_458180183#1_1" lane="458180183#1_1" pos="0.00" endPos="64.37" freq="7" file="camera_42434072_42432693_output.xml"/>
    <laneAreaDetector id="42434072_42432693_458180183#1_2" lane="458180183#1_2" pos="0.00" endPos="64.37" freq="7" file="camera_42434072_42432693_output.xml"/>
    <laneAreaDetector id="42434072_42432693_458180183#1_3" lane="458180183#1_3" pos="0.00" endPos="64.37" freq="7" file="camera_42434072_42432693_output.xml"/>
    <laneAreaDetector id="42434072_42432693_458180183#1_4" lane="458180183#1_4" pos="0.00" endPos="64.37" freq="7" file="camera_42434072_42432693_output.xml"/>
    <laneAreaDetector id="42434434_42434439_273895449#1_0" lane="273895449#1_0" pos="0.00" endPos="53.96" freq="7" file="camera_42434434_42434439_output.xml"/>
    <laneAreaDetector id="42434434_42434439_273895449#1_1" lane="273895449#1_1" pos="0.00" endPos="53.96" freq="7" file="camera_42434434_42434439_output.xml"/>